LTspice 24.0.12 for Windows
Circuit: * C:\S4\EE 230 Analog Circuits Lab\10. Lab 10a\Fourth.asc
Start Time: Fri Mar 28 16:28:29 2025
solver = Normal
Maximum thread count: 12
tnom = 27
temp = 27
method = modified trap
Model "nmos": Oxide thickness thinner than recommended for a level 1 MOSFET.
Instance "m5": Length shorter than recommended for a level 1 MOSFET.
Instance "m1": Length shorter than recommended for a level 1 MOSFET.
Instance "m2": Length shorter than recommended for a level 1 MOSFET.
Instance "m0": Length shorter than recommended for a level 1 MOSFET.
Model "pmos": Oxide thickness thinner than recommended for a level 1 MOSFET.
Instance "m3": Length shorter than recommended for a level 1 MOSFET.
Instance "m4": Length shorter than recommended for a level 1 MOSFET.
Direct Newton iteration for .op point succeeded.
Total elapsed time: 0.169 seconds.

