LTspice 24.0.12 for Windows
Circuit: * C:\S4\EE 230 Analog Circuits Lab\00. EndSem Project\Simulation\HPF.asc
Start Time: Mon Apr 14 18:56:43 2025
solver = Normal
Maximum thread count: 12
tnom = 27
temp = 27
method = modified trap
.OP point found by inspection.
Total elapsed time: 0.107 seconds.

