LTspice 24.0.12 for Windows
Circuit: * C:\S4\EE 230 Analog Circuits Lab\8. Lab 8\Code\second.asc
Start Time: Fri Mar 28 15:26:49 2025
solver = Normal
Maximum thread count: 12
tnom = 27
temp = 27
method = modified trap
Model "nmos": Oxide thickness thinner than recommended for a level 1 MOSFET.
Instance "m1": Length shorter than recommended for a level 1 MOSFET.
Instance "m1": Width narrower than recommended for a level 1 MOSFET.
Direct Newton iteration for .op point succeeded.
Total elapsed time: 0.274 seconds.

