LTspice 24.0.12 for Windows
Circuit: * C:\S4\EE 230 Analog Circuits Lab\4. Lab 4\Draft1.asc
Start Time: Fri Mar  7 14:37:00 2025
solver = Normal
Maximum thread count: 12
tnom = 27
temp = 27
method = modified trap
Model "nmos": Oxide thickness thinner than recommended for a level 1 MOSFET.
Instance "m1": Length shorter than recommended for a level 1 MOSFET.
Instance "m1": Width narrower than recommended for a level 1 MOSFET.
vgs: Missing value, assumed 0V @ DC
Total elapsed time: 0.224 seconds.

